2,6,10,15,19,23-hexamethyltetracosane (http://www.chemspider.com/)
  Marvin  12300703363D          

 92 91  0  0  1  0            999 V2000
   -2.2679    2.3377   -0.2410 C   0  0  1  0  0  0  0  0  0  0  0  0
    2.2679   -2.3377   -0.2410 C   0  0  1  0  0  0  0  0  0  0  0  0
   -1.7458    0.8813   -0.3635 C   0  0  0  0  0  0  0  0  0  0  0  0
    1.7458   -0.8813   -0.3635 C   0  0  0  0  0  0  0  0  0  0  0  0
   -3.8281    2.3023   -0.3297 C   0  0  0  0  0  0  0  0  0  0  0  0
    3.8281   -2.3023   -0.3297 C   0  0  0  0  0  0  0  0  0  0  0  0
   -0.2196    0.7393   -0.5564 C   0  0  0  0  0  0  0  0  0  0  0  0
    0.2196   -0.7393   -0.5564 C   0  0  0  0  0  0  0  0  0  0  0  0
   -4.4713    3.7006   -0.3283 C   0  0  0  0  0  0  0  0  0  0  0  0
    4.4713   -3.7006   -0.3283 C   0  0  0  0  0  0  0  0  0  0  0  0
   -6.5579    5.2462   -0.2248 C   0  0  1  0  0  0  0  0  0  0  0  0
    6.5579   -5.2462   -0.2248 C   0  0  1  0  0  0  0  0  0  0  0  0
   -6.0148    3.7830   -0.3214 C   0  0  0  0  0  0  0  0  0  0  0  0
    6.0148   -3.7830   -0.3214 C   0  0  0  0  0  0  0  0  0  0  0  0
   -8.1179    5.2523   -0.2863 C   0  0  0  0  0  0  0  0  0  0  0  0
    8.1179   -5.2523   -0.2863 C   0  0  0  0  0  0  0  0  0  0  0  0
   -1.7135    3.0649    1.0270 C   0  0  0  0  0  0  0  0  0  0  0  0
    1.7135   -3.0649    1.0270 C   0  0  0  0  0  0  0  0  0  0  0  0
   -8.7582    6.6635   -0.3377 C   0  0  0  0  0  0  0  0  0  0  0  0
    8.7582   -6.6635   -0.3377 C   0  0  0  0  0  0  0  0  0  0  0  0
   -5.9858    6.0310    1.0004 C   0  0  0  0  0  0  0  0  0  0  0  0
    5.9858   -6.0310    1.0004 C   0  0  0  0  0  0  0  0  0  0  0  0
  -10.3027    6.7265   -0.3580 C   0  0  0  0  0  0  0  0  0  0  0  0
   10.3027   -6.7265   -0.3580 C   0  0  0  0  0  0  0  0  0  0  0  0
  -10.8979    8.1703   -0.3024 C   0  0  1  0  0  0  0  0  0  0  0  0
   10.8979   -8.1703   -0.3024 C   0  0  1  0  0  0  0  0  0  0  0  0
  -12.4474    8.1265   -0.3850 C   0  0  0  0  0  0  0  0  0  0  0  0
  -10.4364    9.0126    0.9226 C   0  0  0  0  0  0  0  0  0  0  0  0
   12.4474   -8.1265   -0.3850 C   0  0  0  0  0  0  0  0  0  0  0  0
   10.4364   -9.0126    0.9226 C   0  0  0  0  0  0  0  0  0  0  0  0
   -1.9032    2.8896   -1.1132 H   0  0  0  0  0  0  0  0  0  0  0  0
    1.9032   -2.8896   -1.1132 H   0  0  0  0  0  0  0  0  0  0  0  0
   -2.2123    0.3832   -1.2187 H   0  0  0  0  0  0  0  0  0  0  0  0
   -2.0551    0.3370    0.5336 H   0  0  0  0  0  0  0  0  0  0  0  0
    2.2123   -0.3832   -1.2187 H   0  0  0  0  0  0  0  0  0  0  0  0
    2.0551   -0.3370    0.5336 H   0  0  0  0  0  0  0  0  0  0  0  0
   -4.1442    1.8018   -1.2507 H   0  0  0  0  0  0  0  0  0  0  0  0
   -4.2293    1.7220    0.5075 H   0  0  0  0  0  0  0  0  0  0  0  0
    4.1442   -1.8018   -1.2507 H   0  0  0  0  0  0  0  0  0  0  0  0
    4.2293   -1.7220    0.5075 H   0  0  0  0  0  0  0  0  0  0  0  0
    0.0947    1.2209   -1.4871 H   0  0  0  0  0  0  0  0  0  0  0  0
    0.2988    1.2374    0.2634 H   0  0  0  0  0  0  0  0  0  0  0  0
   -0.0947   -1.2209   -1.4871 H   0  0  0  0  0  0  0  0  0  0  0  0
   -0.2988   -1.2374    0.2634 H   0  0  0  0  0  0  0  0  0  0  0  0
   -4.0759    4.2838   -1.1651 H   0  0  0  0  0  0  0  0  0  0  0  0
   -4.1437    4.1477    0.6028 H   0  0  0  0  0  0  0  0  0  0  0  0
    4.0759   -4.2838   -1.1651 H   0  0  0  0  0  0  0  0  0  0  0  0
    4.1437   -4.1477    0.6028 H   0  0  0  0  0  0  0  0  0  0  0  0
   -6.2057    5.7674   -1.1216 H   0  0  0  0  0  0  0  0  0  0  0  0
    6.2057   -5.7674   -1.1216 H   0  0  0  0  0  0  0  0  0  0  0  0
   -6.3792    3.3078   -1.2373 H   0  0  0  0  0  0  0  0  0  0  0  0
   -6.3955    3.1939    0.5179 H   0  0  0  0  0  0  0  0  0  0  0  0
    6.3792   -3.3078   -1.2373 H   0  0  0  0  0  0  0  0  0  0  0  0
    6.3955   -3.1939    0.5179 H   0  0  0  0  0  0  0  0  0  0  0  0
   -8.4471    4.7091   -1.1775 H   0  0  0  0  0  0  0  0  0  0  0  0
   -8.5111    4.7131    0.5798 H   0  0  0  0  0  0  0  0  0  0  0  0
    8.4471   -4.7091   -1.1775 H   0  0  0  0  0  0  0  0  0  0  0  0
    8.5111   -4.7131    0.5798 H   0  0  0  0  0  0  0  0  0  0  0  0
   -2.0862    2.5974    1.9401 H   0  0  0  0  0  0  0  0  0  0  0  0
   -1.9764    4.1218    1.0455 H   0  0  0  0  0  0  0  0  0  0  0  0
   -0.6265    3.0775    1.0718 H   0  0  0  0  0  0  0  0  0  0  0  0
    2.0862   -2.5974    1.9401 H   0  0  0  0  0  0  0  0  0  0  0  0
    1.9764   -4.1218    1.0455 H   0  0  0  0  0  0  0  0  0  0  0  0
    0.6265   -3.0775    1.0718 H   0  0  0  0  0  0  0  0  0  0  0  0
   -8.3591    7.2100   -1.1972 H   0  0  0  0  0  0  0  0  0  0  0  0
   -8.4585    7.1844    0.5672 H   0  0  0  0  0  0  0  0  0  0  0  0
    8.3591   -7.2100   -1.1972 H   0  0  0  0  0  0  0  0  0  0  0  0
    8.4585   -7.1844    0.5672 H   0  0  0  0  0  0  0  0  0  0  0  0
   -6.2254    5.5174    1.9329 H   0  0  0  0  0  0  0  0  0  0  0  0
   -6.3402    7.0557    1.0651 H   0  0  0  0  0  0  0  0  0  0  0  0
   -4.9072    6.1662    0.9387 H   0  0  0  0  0  0  0  0  0  0  0  0
    6.2254   -5.5174    1.9329 H   0  0  0  0  0  0  0  0  0  0  0  0
    6.3402   -7.0557    1.0651 H   0  0  0  0  0  0  0  0  0  0  0  0
    4.9072   -6.1662    0.9387 H   0  0  0  0  0  0  0  0  0  0  0  0
  -10.6416    6.2250   -1.2689 H   0  0  0  0  0  0  0  0  0  0  0  0
  -10.6843    6.1489    0.4883 H   0  0  0  0  0  0  0  0  0  0  0  0
   10.6416   -6.2250   -1.2689 H   0  0  0  0  0  0  0  0  0  0  0  0
   10.6843   -6.1489    0.4883 H   0  0  0  0  0  0  0  0  0  0  0  0
  -10.5554    8.7009   -1.1976 H   0  0  0  0  0  0  0  0  0  0  0  0
   10.5554   -8.7009   -1.1976 H   0  0  0  0  0  0  0  0  0  0  0  0
  -12.7759    7.5999   -1.2837 H   0  0  0  0  0  0  0  0  0  0  0  0
  -12.8643    9.1349   -0.4291 H   0  0  0  0  0  0  0  0  0  0  0  0
  -12.8687    7.6188    0.4854 H   0  0  0  0  0  0  0  0  0  0  0  0
  -10.9927    9.9469    1.0071 H   0  0  0  0  0  0  0  0  0  0  0  0
  -10.5647    8.4530    1.8504 H   0  0  0  0  0  0  0  0  0  0  0  0
   -9.3857    9.2942    0.8344 H   0  0  0  0  0  0  0  0  0  0  0  0
   12.7759   -7.5999   -1.2837 H   0  0  0  0  0  0  0  0  0  0  0  0
   12.8643   -9.1349   -0.4291 H   0  0  0  0  0  0  0  0  0  0  0  0
   12.8687   -7.6188    0.4854 H   0  0  0  0  0  0  0  0  0  0  0  0
   10.9927   -9.9469    1.0071 H   0  0  0  0  0  0  0  0  0  0  0  0
   10.5647   -8.4530    1.8504 H   0  0  0  0  0  0  0  0  0  0  0  0
    9.3857   -9.2942    0.8344 H   0  0  0  0  0  0  0  0  0  0  0  0
  1  3  1  0  0  0  0
  1  5  1  0  0  0  0
  1 17  1  0  0  0  0
  1 31  1  0  0  0  0
  2  4  1  0  0  0  0
  2  6  1  0  0  0  0
  2 18  1  0  0  0  0
  2 32  1  0  0  0  0
  3  7  1  0  0  0  0
  3 33  1  0  0  0  0
  3 34  1  0  0  0  0
  4  8  1  0  0  0  0
  4 35  1  0  0  0  0
  4 36  1  0  0  0  0
  5  9  1  0  0  0  0
  5 37  1  0  0  0  0
  5 38  1  0  0  0  0
  6 10  1  0  0  0  0
  6 39  1  0  0  0  0
  6 40  1  0  0  0  0
  7  8  1  0  0  0  0
  7 41  1  0  0  0  0
  7 42  1  0  0  0  0
  8 43  1  0  0  0  0
  8 44  1  0  0  0  0
  9 13  1  0  0  0  0
  9 45  1  0  0  0  0
  9 46  1  0  0  0  0
 10 14  1  0  0  0  0
 10 47  1  0  0  0  0
 10 48  1  0  0  0  0
 11 13  1  0  0  0  0
 11 15  1  0  0  0  0
 11 21  1  0  0  0  0
 11 49  1  0  0  0  0
 12 14  1  0  0  0  0
 12 16  1  0  0  0  0
 12 22  1  0  0  0  0
 12 50  1  0  0  0  0
 13 51  1  0  0  0  0
 13 52  1  0  0  0  0
 14 53  1  0  0  0  0
 14 54  1  0  0  0  0
 15 19  1  0  0  0  0
 15 55  1  0  0  0  0
 15 56  1  0  0  0  0
 16 20  1  0  0  0  0
 16 57  1  0  0  0  0
 16 58  1  0  0  0  0
 17 59  1  0  0  0  0
 17 60  1  0  0  0  0
 17 61  1  0  0  0  0
 18 62  1  0  0  0  0
 18 63  1  0  0  0  0
 18 64  1  0  0  0  0
 19 23  1  0  0  0  0
 19 65  1  0  0  0  0
 19 66  1  0  0  0  0
 20 24  1  0  0  0  0
 20 67  1  0  0  0  0
 20 68  1  0  0  0  0
 21 69  1  0  0  0  0
 21 70  1  0  0  0  0
 21 71  1  0  0  0  0
 22 72  1  0  0  0  0
 22 73  1  0  0  0  0
 22 74  1  0  0  0  0
 23 25  1  0  0  0  0
 23 75  1  0  0  0  0
 23 76  1  0  0  0  0
 24 26  1  0  0  0  0
 24 77  1  0  0  0  0
 24 78  1  0  0  0  0
 25 27  1  0  0  0  0
 25 28  1  0  0  0  0
 25 79  1  0  0  0  0
 26 29  1  0  0  0  0
 26 30  1  0  0  0  0
 26 80  1  0  0  0  0
 27 81  1  0  0  0  0
 27 82  1  0  0  0  0
 27 83  1  0  0  0  0
 28 84  1  0  0  0  0
 28 85  1  0  0  0  0
 28 86  1  0  0  0  0
 29 87  1  0  0  0  0
 29 88  1  0  0  0  0
 29 89  1  0  0  0  0
 30 90  1  0  0  0  0
 30 91  1  0  0  0  0
 30 92  1  0  0  0  0
M  END
> <PUBCHEM_BONDANNOTATIONS>
1  17  3
11  21  3
12  22  3
2  18  3

$$$$
