7505 benzonitrile (http://www.chemspider.com/)
  Marvin  12300703363D          

 13 13  0  0  0  0            999 V2000
   -1.7742   -3.0731   -0.0000 N   0  0  0  0  0  0  0  0  0  0  0  0
   -0.5493   -0.9514   -0.0000 C   0  0  0  0  0  0  0  0  0  0  0  0
    0.8637   -0.9461    0.0000 C   0  0  0  0  0  0  0  0  0  0  0  0
   -1.2512    0.2749    0.0000 C   0  0  0  0  0  0  0  0  0  0  0  0
    1.5655    0.2742   -0.0000 C   0  0  0  0  0  0  0  0  0  0  0  0
   -0.5453    1.4928   -0.0000 C   0  0  0  0  0  0  0  0  0  0  0  0
    0.8620    1.4931    0.0000 C   0  0  0  0  0  0  0  0  0  0  0  0
   -1.2001   -2.0786   -0.0000 C   0  0  0  0  0  0  0  0  0  0  0  0
    1.3993   -1.8202    0.0000 H   0  0  0  0  0  0  0  0  0  0  0  0
   -2.2760    0.3018    0.0000 H   0  0  0  0  0  0  0  0  0  0  0  0
    2.5882    0.2752    0.0000 H   0  0  0  0  0  0  0  0  0  0  0  0
   -1.0558    2.3790    0.0000 H   0  0  0  0  0  0  0  0  0  0  0  0
    1.3732    2.3785   -0.0000 H   0  0  0  0  0  0  0  0  0  0  0  0
  1  8  3  0  0  0  0
  2  3  2  0  0  0  0
  2  4  1  0  0  0  0
  2  8  1  0  0  0  0
  3  5  1  0  0  0  0
  3  9  1  0  0  0  0
  4  6  2  0  0  0  0
  4 10  1  0  0  0  0
  5  7  2  0  0  0  0
  5 11  1  0  0  0  0
  6  7  1  0  0  0  0
  6 12  1  0  0  0  0
  7 13  1  0  0  0  0
M  END
> <PUBCHEM_BONDANNOTATIONS>
2  3  8
2  4  8
3  5  8
4  6  8
5  7  8
6  7  8

$$$$
